
OS:Version,
  {082d0a16-78aa-4c31-a423-b244319f0674}, !- Handle
  1.0.6;                                  !- Version Identifier

OS:BuildingStory,
  {fba65894-d82e-4c6a-8c74-35525d5d0b50}, !- Handle
  Building Story 1,                       !- Name
  0,                                      !- Nominal Z Coordinate {m}
  3.5,                                    !- Nominal Floor to Floor Height {m}
  ,                                       !- Default Construction Set Name
  ,                                       !- Default Schedule Set Name
  ;                                       !- Group Rendering Name

OS:ThermalZone,
  {ec3d4122-5118-4dee-ac78-5aa9ec5ade7e}, !- Handle
  Thermal Zone 1,                         !- Name
  ,                                       !- Multiplier
  ,                                       !- Ceiling Height {m}
  ,                                       !- Volume {m3}
  ,                                       !- Floor Area {m2}
  ,                                       !- Zone Inside Convection Algorithm
  ,                                       !- Zone Outside Convection Algorithm
  ,                                       !- Zone Conditioning Equipment List Name
  {7c84100e-eef4-40e3-a790-a102fc3bbfb6}, !- Zone Air Inlet Port List
  {0c64c103-6b6c-4463-892a-a6a0ecad2013}, !- Zone Air Exhaust Port List
  {f1b8bd6b-347a-40f0-ba5c-be06c615874e}, !- Zone Air Node Name
  ,                                       !- Zone Return Air Node Name
  ,                                       !- Primary Daylighting Control Name
  ,                                       !- Fraction of Zone Controlled by Primary Daylighting Control
  ,                                       !- Secondary Daylighting Control Name
  ,                                       !- Fraction of Zone Controlled by Secondary Daylighting Control
  ,                                       !- Illuminance Map Name
  ,                                       !- Group Rendering Name
  ,                                       !- Thermostat Name
  No;                                     !- Use Ideal Air Loads

OS:Node,
  {c5e1d2f5-8ab7-4621-857e-1518b54dbe2f}, !- Handle
  Node 1,                                 !- Name
  {f1b8bd6b-347a-40f0-ba5c-be06c615874e}, !- Inlet Port
  ;                                       !- Outlet Port

OS:Connection,
  {f1b8bd6b-347a-40f0-ba5c-be06c615874e}, !- Handle
  Connection 1,                           !- Name
  {ec3d4122-5118-4dee-ac78-5aa9ec5ade7e}, !- Source Object
  11,                                     !- Outlet Port
  {c5e1d2f5-8ab7-4621-857e-1518b54dbe2f}, !- Target Object
  2;                                      !- Inlet Port

OS:PortList,
  {7c84100e-eef4-40e3-a790-a102fc3bbfb6}, !- Handle
  Port List 1,                            !- Name
  {ec3d4122-5118-4dee-ac78-5aa9ec5ade7e}; !- HVAC Component

OS:PortList,
  {0c64c103-6b6c-4463-892a-a6a0ecad2013}, !- Handle
  Port List 2,                            !- Name
  {ec3d4122-5118-4dee-ac78-5aa9ec5ade7e}; !- HVAC Component

OS:Sizing:Zone,
  {ac6cc8ce-4c59-4a48-b81e-5d4fb513c863}, !- Handle
  {ec3d4122-5118-4dee-ac78-5aa9ec5ade7e}, !- Zone or ZoneList Name
  14,                                     !- Zone Cooling Design Supply Air Temperature {C}
  40,                                     !- Zone Heating Design Supply Air Temperature {C}
  0.0085,                                 !- Zone Cooling Design Supply Air Humidity Ratio {kg-H2O/kg-air}
  0.008,                                  !- Zone Heating Design Supply Air Humidity Ratio {kg-H2O/kg-air}
  ,                                       !- Zone Heating Sizing Factor
  ,                                       !- Zone Cooling Sizing Factor
  DesignDay,                              !- Cooling Design Air Flow Method
  ,                                       !- Cooling Design Air Flow Rate {m3/s}
  ,                                       !- Cooling Minimum Air Flow per Zone Floor Area {m3/s-m2}
  ,                                       !- Cooling Minimum Air Flow {m3/s}
  ,                                       !- Cooling Minimum Air Flow Fraction
  DesignDay,                              !- Heating Design Air Flow Method
  ,                                       !- Heating Design Air Flow Rate {m3/s}
  ,                                       !- Heating Maximum Air Flow per Zone Floor Area {m3/s-m2}
  ,                                       !- Heating Maximum Air Flow {m3/s}
  ,                                       !- Heating Maximum Air Flow Fraction
  ,                                       !- Design Zone Air Distribution Effectiveness in Cooling Mode
  ;                                       !- Design Zone Air Distribution Effectiveness in Heating Mode

OS:ZoneHVAC:EquipmentList,
  {f9aed2bb-87ba-4e4c-8a68-cb946b3453f2}, !- Handle
  Zone HVAC Equipment List 1,             !- Name
  {ec3d4122-5118-4dee-ac78-5aa9ec5ade7e}; !- Thermal Zone

OS:Space,
  {e7bddf31-15eb-48bb-9d3f-314125078258}, !- Handle
  Space 1,                                !- Name
  ,                                       !- Space Type Name
  ,                                       !- Default Construction Set Name
  ,                                       !- Default Schedule Set Name
  ,                                       !- Direction of Relative North {deg}
  ,                                       !- X Origin {m}
  ,                                       !- Y Origin {m}
  ,                                       !- Z Origin {m}
  ,                                       !- Building Story Name
  {ec3d4122-5118-4dee-ac78-5aa9ec5ade7e}; !- Thermal Zone Name

OS:Surface,
  {362d9b17-f83d-4e47-be2b-b2fcfc41a0ea}, !- Handle
  Surface 1,                              !- Name
  Floor,                                  !- Surface Type
  ,                                       !- Construction Name
  {e7bddf31-15eb-48bb-9d3f-314125078258}, !- Space Name
  Ground,                                 !- Outside Boundary Condition
  ,                                       !- Outside Boundary Condition Object
  NoSun,                                  !- Sun Exposure
  NoWind,                                 !- Wind Exposure
  ,                                       !- View Factor to Ground
  ,                                       !- Number of Vertices
  0, 0, 0,                                !- X,Y,Z Vertex 1 {m}
  0, 4, 0,                                !- X,Y,Z Vertex 2 {m}
  3, 4, 0,                                !- X,Y,Z Vertex 3 {m}
  3, 0, 0;                                !- X,Y,Z Vertex 4 {m}

OS:Surface,
  {07645c2c-dff9-4d44-9713-e4fd379cdfe9}, !- Handle
  Surface 2,                              !- Name
  Wall,                                   !- Surface Type
  ,                                       !- Construction Name
  {e7bddf31-15eb-48bb-9d3f-314125078258}, !- Space Name
  Outdoors,                               !- Outside Boundary Condition
  ,                                       !- Outside Boundary Condition Object
  SunExposed,                             !- Sun Exposure
  WindExposed,                            !- Wind Exposure
  ,                                       !- View Factor to Ground
  ,                                       !- Number of Vertices
  0, 4, 3.5,                              !- X,Y,Z Vertex 1 {m}
  0, 4, 0,                                !- X,Y,Z Vertex 2 {m}
  0, 0, 0,                                !- X,Y,Z Vertex 3 {m}
  0, 0, 3.5;                              !- X,Y,Z Vertex 4 {m}

OS:Surface,
  {0d3016b9-6712-472b-bb71-a13a20914a51}, !- Handle
  Surface 3,                              !- Name
  Wall,                                   !- Surface Type
  ,                                       !- Construction Name
  {e7bddf31-15eb-48bb-9d3f-314125078258}, !- Space Name
  Outdoors,                               !- Outside Boundary Condition
  ,                                       !- Outside Boundary Condition Object
  SunExposed,                             !- Sun Exposure
  WindExposed,                            !- Wind Exposure
  ,                                       !- View Factor to Ground
  ,                                       !- Number of Vertices
  3, 4, 3.5,                              !- X,Y,Z Vertex 1 {m}
  3, 4, 0,                                !- X,Y,Z Vertex 2 {m}
  0, 4, 0,                                !- X,Y,Z Vertex 3 {m}
  0, 4, 3.5;                              !- X,Y,Z Vertex 4 {m}

OS:Surface,
  {f396ee38-a02e-418e-a9b2-c7795acccfa9}, !- Handle
  Surface 4,                              !- Name
  Wall,                                   !- Surface Type
  ,                                       !- Construction Name
  {e7bddf31-15eb-48bb-9d3f-314125078258}, !- Space Name
  Outdoors,                               !- Outside Boundary Condition
  ,                                       !- Outside Boundary Condition Object
  SunExposed,                             !- Sun Exposure
  WindExposed,                            !- Wind Exposure
  ,                                       !- View Factor to Ground
  ,                                       !- Number of Vertices
  3, 0, 3.5,                              !- X,Y,Z Vertex 1 {m}
  3, 0, 0,                                !- X,Y,Z Vertex 2 {m}
  3, 4, 0,                                !- X,Y,Z Vertex 3 {m}
  3, 4, 3.5;                              !- X,Y,Z Vertex 4 {m}

OS:Surface,
  {de55c7c3-b9e2-4aa9-ac2c-cad5f718168a}, !- Handle
  Surface 5,                              !- Name
  Wall,                                   !- Surface Type
  ,                                       !- Construction Name
  {e7bddf31-15eb-48bb-9d3f-314125078258}, !- Space Name
  Outdoors,                               !- Outside Boundary Condition
  ,                                       !- Outside Boundary Condition Object
  SunExposed,                             !- Sun Exposure
  WindExposed,                            !- Wind Exposure
  ,                                       !- View Factor to Ground
  ,                                       !- Number of Vertices
  0, 0, 3.5,                              !- X,Y,Z Vertex 1 {m}
  0, 0, 0,                                !- X,Y,Z Vertex 2 {m}
  3, 0, 0,                                !- X,Y,Z Vertex 3 {m}
  3, 0, 3.5;                              !- X,Y,Z Vertex 4 {m}

OS:Surface,
  {8c95d3f4-b276-467b-8fdb-ac4cffefeda1}, !- Handle
  Surface 6,                              !- Name
  RoofCeiling,                            !- Surface Type
  ,                                       !- Construction Name
  {e7bddf31-15eb-48bb-9d3f-314125078258}, !- Space Name
  Outdoors,                               !- Outside Boundary Condition
  ,                                       !- Outside Boundary Condition Object
  SunExposed,                             !- Sun Exposure
  WindExposed,                            !- Wind Exposure
  ,                                       !- View Factor to Ground
  ,                                       !- Number of Vertices
  3, 0, 3.5,                              !- X,Y,Z Vertex 1 {m}
  3, 4, 3.5,                              !- X,Y,Z Vertex 2 {m}
  0, 4, 3.5,                              !- X,Y,Z Vertex 3 {m}
  0, 0, 3.5;                              !- X,Y,Z Vertex 4 {m}

OS:BuildingStory,
  {c6fa73ef-020d-465a-baba-21d1c90e5d80}, !- Handle
  Building Story 2,                       !- Name
  3.5,                                    !- Nominal Z Coordinate {m}
  3.5,                                    !- Nominal Floor to Floor Height {m}
  ,                                       !- Default Construction Set Name
  ,                                       !- Default Schedule Set Name
  ;                                       !- Group Rendering Name

OS:ThermalZone,
  {a6cb02ae-f468-4392-9138-271eaa58cb28}, !- Handle
  Thermal Zone 2,                         !- Name
  ,                                       !- Multiplier
  ,                                       !- Ceiling Height {m}
  ,                                       !- Volume {m3}
  ,                                       !- Floor Area {m2}
  ,                                       !- Zone Inside Convection Algorithm
  ,                                       !- Zone Outside Convection Algorithm
  ,                                       !- Zone Conditioning Equipment List Name
  {dba22db2-daee-4dad-b539-07994a88f550}, !- Zone Air Inlet Port List
  {81217555-490c-4e51-afbc-0e248a758116}, !- Zone Air Exhaust Port List
  {e06c37f3-a44d-446c-9d43-61ef60c68587}, !- Zone Air Node Name
  ,                                       !- Zone Return Air Node Name
  ,                                       !- Primary Daylighting Control Name
  ,                                       !- Fraction of Zone Controlled by Primary Daylighting Control
  ,                                       !- Secondary Daylighting Control Name
  ,                                       !- Fraction of Zone Controlled by Secondary Daylighting Control
  ,                                       !- Illuminance Map Name
  ,                                       !- Group Rendering Name
  ,                                       !- Thermostat Name
  No;                                     !- Use Ideal Air Loads

OS:Node,
  {e2907351-a836-42a5-9ea7-84c8193cf02a}, !- Handle
  Node 2,                                 !- Name
  {e06c37f3-a44d-446c-9d43-61ef60c68587}, !- Inlet Port
  ;                                       !- Outlet Port

OS:Connection,
  {e06c37f3-a44d-446c-9d43-61ef60c68587}, !- Handle
  Connection 2,                           !- Name
  {a6cb02ae-f468-4392-9138-271eaa58cb28}, !- Source Object
  11,                                     !- Outlet Port
  {e2907351-a836-42a5-9ea7-84c8193cf02a}, !- Target Object
  2;                                      !- Inlet Port

OS:PortList,
  {dba22db2-daee-4dad-b539-07994a88f550}, !- Handle
  Port List 3,                            !- Name
  {a6cb02ae-f468-4392-9138-271eaa58cb28}; !- HVAC Component

OS:PortList,
  {81217555-490c-4e51-afbc-0e248a758116}, !- Handle
  Port List 4,                            !- Name
  {a6cb02ae-f468-4392-9138-271eaa58cb28}; !- HVAC Component

OS:Sizing:Zone,
  {deef8a3d-eb8d-40f4-862e-4dfb01b56f8e}, !- Handle
  {a6cb02ae-f468-4392-9138-271eaa58cb28}, !- Zone or ZoneList Name
  14,                                     !- Zone Cooling Design Supply Air Temperature {C}
  40,                                     !- Zone Heating Design Supply Air Temperature {C}
  0.0085,                                 !- Zone Cooling Design Supply Air Humidity Ratio {kg-H2O/kg-air}
  0.008,                                  !- Zone Heating Design Supply Air Humidity Ratio {kg-H2O/kg-air}
  ,                                       !- Zone Heating Sizing Factor
  ,                                       !- Zone Cooling Sizing Factor
  DesignDay,                              !- Cooling Design Air Flow Method
  ,                                       !- Cooling Design Air Flow Rate {m3/s}
  ,                                       !- Cooling Minimum Air Flow per Zone Floor Area {m3/s-m2}
  ,                                       !- Cooling Minimum Air Flow {m3/s}
  ,                                       !- Cooling Minimum Air Flow Fraction
  DesignDay,                              !- Heating Design Air Flow Method
  ,                                       !- Heating Design Air Flow Rate {m3/s}
  ,                                       !- Heating Maximum Air Flow per Zone Floor Area {m3/s-m2}
  ,                                       !- Heating Maximum Air Flow {m3/s}
  ,                                       !- Heating Maximum Air Flow Fraction
  ,                                       !- Design Zone Air Distribution Effectiveness in Cooling Mode
  ;                                       !- Design Zone Air Distribution Effectiveness in Heating Mode

OS:ZoneHVAC:EquipmentList,
  {573c24e8-66fb-4fbf-96d5-35837796f84e}, !- Handle
  Zone HVAC Equipment List 2,             !- Name
  {a6cb02ae-f468-4392-9138-271eaa58cb28}; !- Thermal Zone

OS:Space,
  {b2efdc11-7576-4226-9486-f71938c8e8dd}, !- Handle
  Space 2,                                !- Name
  ,                                       !- Space Type Name
  ,                                       !- Default Construction Set Name
  ,                                       !- Default Schedule Set Name
  ,                                       !- Direction of Relative North {deg}
  ,                                       !- X Origin {m}
  ,                                       !- Y Origin {m}
  ,                                       !- Z Origin {m}
  ,                                       !- Building Story Name
  {a6cb02ae-f468-4392-9138-271eaa58cb28}; !- Thermal Zone Name

OS:Surface,
  {f2796ab0-9dab-418f-8ecf-943b170fb400}, !- Handle
  Surface 7,                              !- Name
  Floor,                                  !- Surface Type
  ,                                       !- Construction Name
  {b2efdc11-7576-4226-9486-f71938c8e8dd}, !- Space Name
  Ground,                                 !- Outside Boundary Condition
  ,                                       !- Outside Boundary Condition Object
  NoSun,                                  !- Sun Exposure
  NoWind,                                 !- Wind Exposure
  ,                                       !- View Factor to Ground
  ,                                       !- Number of Vertices
  0, 0, 0,                                !- X,Y,Z Vertex 1 {m}
  0, 4, 0,                                !- X,Y,Z Vertex 2 {m}
  3, 4, 0,                                !- X,Y,Z Vertex 3 {m}
  3, 0, 0;                                !- X,Y,Z Vertex 4 {m}

OS:Surface,
  {89fb4e82-62d0-432c-b5a9-60761cf02e78}, !- Handle
  Surface 8,                              !- Name
  Wall,                                   !- Surface Type
  ,                                       !- Construction Name
  {b2efdc11-7576-4226-9486-f71938c8e8dd}, !- Space Name
  Outdoors,                               !- Outside Boundary Condition
  ,                                       !- Outside Boundary Condition Object
  SunExposed,                             !- Sun Exposure
  WindExposed,                            !- Wind Exposure
  ,                                       !- View Factor to Ground
  ,                                       !- Number of Vertices
  0, 4, 3.5,                              !- X,Y,Z Vertex 1 {m}
  0, 4, 0,                                !- X,Y,Z Vertex 2 {m}
  0, 0, 0,                                !- X,Y,Z Vertex 3 {m}
  0, 0, 3.5;                              !- X,Y,Z Vertex 4 {m}

OS:Surface,
  {fcdc8c02-6594-4752-b5aa-f5d3648f5431}, !- Handle
  Surface 9,                              !- Name
  Wall,                                   !- Surface Type
  ,                                       !- Construction Name
  {b2efdc11-7576-4226-9486-f71938c8e8dd}, !- Space Name
  Outdoors,                               !- Outside Boundary Condition
  ,                                       !- Outside Boundary Condition Object
  SunExposed,                             !- Sun Exposure
  WindExposed,                            !- Wind Exposure
  ,                                       !- View Factor to Ground
  ,                                       !- Number of Vertices
  3, 4, 3.5,                              !- X,Y,Z Vertex 1 {m}
  3, 4, 0,                                !- X,Y,Z Vertex 2 {m}
  0, 4, 0,                                !- X,Y,Z Vertex 3 {m}
  0, 4, 3.5;                              !- X,Y,Z Vertex 4 {m}

OS:Surface,
  {8002e331-9c7e-437a-a4fa-8192001ba840}, !- Handle
  Surface 10,                             !- Name
  Wall,                                   !- Surface Type
  ,                                       !- Construction Name
  {b2efdc11-7576-4226-9486-f71938c8e8dd}, !- Space Name
  Outdoors,                               !- Outside Boundary Condition
  ,                                       !- Outside Boundary Condition Object
  SunExposed,                             !- Sun Exposure
  WindExposed,                            !- Wind Exposure
  ,                                       !- View Factor to Ground
  ,                                       !- Number of Vertices
  3, 0, 3.5,                              !- X,Y,Z Vertex 1 {m}
  3, 0, 0,                                !- X,Y,Z Vertex 2 {m}
  3, 4, 0,                                !- X,Y,Z Vertex 3 {m}
  3, 4, 3.5;                              !- X,Y,Z Vertex 4 {m}

OS:Surface,
  {635fb97f-f923-477e-a6fd-18fc6f50f591}, !- Handle
  Surface 11,                             !- Name
  Wall,                                   !- Surface Type
  ,                                       !- Construction Name
  {b2efdc11-7576-4226-9486-f71938c8e8dd}, !- Space Name
  Outdoors,                               !- Outside Boundary Condition
  ,                                       !- Outside Boundary Condition Object
  SunExposed,                             !- Sun Exposure
  WindExposed,                            !- Wind Exposure
  ,                                       !- View Factor to Ground
  ,                                       !- Number of Vertices
  0, 0, 3.5,                              !- X,Y,Z Vertex 1 {m}
  0, 0, 0,                                !- X,Y,Z Vertex 2 {m}
  3, 0, 0,                                !- X,Y,Z Vertex 3 {m}
  3, 0, 3.5;                              !- X,Y,Z Vertex 4 {m}

OS:Surface,
  {62192710-2093-44b4-95a8-4ae2825aa7e8}, !- Handle
  Surface 12,                             !- Name
  RoofCeiling,                            !- Surface Type
  ,                                       !- Construction Name
  {b2efdc11-7576-4226-9486-f71938c8e8dd}, !- Space Name
  Outdoors,                               !- Outside Boundary Condition
  ,                                       !- Outside Boundary Condition Object
  SunExposed,                             !- Sun Exposure
  WindExposed,                            !- Wind Exposure
  ,                                       !- View Factor to Ground
  ,                                       !- Number of Vertices
  3, 0, 3.5,                              !- X,Y,Z Vertex 1 {m}
  3, 4, 3.5,                              !- X,Y,Z Vertex 2 {m}
  0, 4, 3.5,                              !- X,Y,Z Vertex 3 {m}
  0, 0, 3.5;                              !- X,Y,Z Vertex 4 {m}

OS:BuildingStory,
  {13e7fb6c-eeae-4352-9ced-360636997ef5}, !- Handle
  Building Story 3,                       !- Name
  7,                                      !- Nominal Z Coordinate {m}
  3.5,                                    !- Nominal Floor to Floor Height {m}
  ,                                       !- Default Construction Set Name
  ,                                       !- Default Schedule Set Name
  ;                                       !- Group Rendering Name

OS:ThermalZone,
  {c79fc810-376a-4a7a-9e93-1ee470181d5f}, !- Handle
  Thermal Zone 3,                         !- Name
  ,                                       !- Multiplier
  ,                                       !- Ceiling Height {m}
  ,                                       !- Volume {m3}
  ,                                       !- Floor Area {m2}
  ,                                       !- Zone Inside Convection Algorithm
  ,                                       !- Zone Outside Convection Algorithm
  ,                                       !- Zone Conditioning Equipment List Name
  {be3019fd-1b67-4ca1-a153-606530f942b3}, !- Zone Air Inlet Port List
  {637adb40-22bf-4560-aaf8-9326794e64d6}, !- Zone Air Exhaust Port List
  {d354efa5-f7c2-4a91-97de-5f12abf3a112}, !- Zone Air Node Name
  ,                                       !- Zone Return Air Node Name
  ,                                       !- Primary Daylighting Control Name
  ,                                       !- Fraction of Zone Controlled by Primary Daylighting Control
  ,                                       !- Secondary Daylighting Control Name
  ,                                       !- Fraction of Zone Controlled by Secondary Daylighting Control
  ,                                       !- Illuminance Map Name
  ,                                       !- Group Rendering Name
  ,                                       !- Thermostat Name
  No;                                     !- Use Ideal Air Loads

OS:Node,
  {b4577846-d6e3-4b7d-b972-ff374637b852}, !- Handle
  Node 3,                                 !- Name
  {d354efa5-f7c2-4a91-97de-5f12abf3a112}, !- Inlet Port
  ;                                       !- Outlet Port

OS:Connection,
  {d354efa5-f7c2-4a91-97de-5f12abf3a112}, !- Handle
  Connection 3,                           !- Name
  {c79fc810-376a-4a7a-9e93-1ee470181d5f}, !- Source Object
  11,                                     !- Outlet Port
  {b4577846-d6e3-4b7d-b972-ff374637b852}, !- Target Object
  2;                                      !- Inlet Port

OS:PortList,
  {be3019fd-1b67-4ca1-a153-606530f942b3}, !- Handle
  Port List 5,                            !- Name
  {c79fc810-376a-4a7a-9e93-1ee470181d5f}; !- HVAC Component

OS:PortList,
  {637adb40-22bf-4560-aaf8-9326794e64d6}, !- Handle
  Port List 6,                            !- Name
  {c79fc810-376a-4a7a-9e93-1ee470181d5f}; !- HVAC Component

OS:Sizing:Zone,
  {f9c45b39-27ca-4edb-b226-051a822e2f12}, !- Handle
  {c79fc810-376a-4a7a-9e93-1ee470181d5f}, !- Zone or ZoneList Name
  14,                                     !- Zone Cooling Design Supply Air Temperature {C}
  40,                                     !- Zone Heating Design Supply Air Temperature {C}
  0.0085,                                 !- Zone Cooling Design Supply Air Humidity Ratio {kg-H2O/kg-air}
  0.008,                                  !- Zone Heating Design Supply Air Humidity Ratio {kg-H2O/kg-air}
  ,                                       !- Zone Heating Sizing Factor
  ,                                       !- Zone Cooling Sizing Factor
  DesignDay,                              !- Cooling Design Air Flow Method
  ,                                       !- Cooling Design Air Flow Rate {m3/s}
  ,                                       !- Cooling Minimum Air Flow per Zone Floor Area {m3/s-m2}
  ,                                       !- Cooling Minimum Air Flow {m3/s}
  ,                                       !- Cooling Minimum Air Flow Fraction
  DesignDay,                              !- Heating Design Air Flow Method
  ,                                       !- Heating Design Air Flow Rate {m3/s}
  ,                                       !- Heating Maximum Air Flow per Zone Floor Area {m3/s-m2}
  ,                                       !- Heating Maximum Air Flow {m3/s}
  ,                                       !- Heating Maximum Air Flow Fraction
  ,                                       !- Design Zone Air Distribution Effectiveness in Cooling Mode
  ;                                       !- Design Zone Air Distribution Effectiveness in Heating Mode

OS:ZoneHVAC:EquipmentList,
  {2af4bd9d-2934-4a65-bce6-30a82110ae18}, !- Handle
  Zone HVAC Equipment List 3,             !- Name
  {c79fc810-376a-4a7a-9e93-1ee470181d5f}; !- Thermal Zone

OS:Space,
  {693892d0-02ad-4d5d-a161-2057053897db}, !- Handle
  Space 3,                                !- Name
  ,                                       !- Space Type Name
  ,                                       !- Default Construction Set Name
  ,                                       !- Default Schedule Set Name
  ,                                       !- Direction of Relative North {deg}
  ,                                       !- X Origin {m}
  ,                                       !- Y Origin {m}
  ,                                       !- Z Origin {m}
  ,                                       !- Building Story Name
  {c79fc810-376a-4a7a-9e93-1ee470181d5f}; !- Thermal Zone Name

OS:Surface,
  {46b9cac4-6560-42c3-9178-2d2601cf9950}, !- Handle
  Surface 13,                             !- Name
  Floor,                                  !- Surface Type
  ,                                       !- Construction Name
  {693892d0-02ad-4d5d-a161-2057053897db}, !- Space Name
  Ground,                                 !- Outside Boundary Condition
  ,                                       !- Outside Boundary Condition Object
  NoSun,                                  !- Sun Exposure
  NoWind,                                 !- Wind Exposure
  ,                                       !- View Factor to Ground
  ,                                       !- Number of Vertices
  0, 0, 0,                                !- X,Y,Z Vertex 1 {m}
  0, 4, 0,                                !- X,Y,Z Vertex 2 {m}
  3, 4, 0,                                !- X,Y,Z Vertex 3 {m}
  3, 0, 0;                                !- X,Y,Z Vertex 4 {m}

OS:Surface,
  {86eccc45-c8dd-40a9-aedc-df7018b3bd72}, !- Handle
  Surface 14,                             !- Name
  Wall,                                   !- Surface Type
  ,                                       !- Construction Name
  {693892d0-02ad-4d5d-a161-2057053897db}, !- Space Name
  Outdoors,                               !- Outside Boundary Condition
  ,                                       !- Outside Boundary Condition Object
  SunExposed,                             !- Sun Exposure
  WindExposed,                            !- Wind Exposure
  ,                                       !- View Factor to Ground
  ,                                       !- Number of Vertices
  0, 4, 3.5,                              !- X,Y,Z Vertex 1 {m}
  0, 4, 0,                                !- X,Y,Z Vertex 2 {m}
  0, 0, 0,                                !- X,Y,Z Vertex 3 {m}
  0, 0, 3.5;                              !- X,Y,Z Vertex 4 {m}

OS:Surface,
  {fc9f9883-7fec-4eaa-85e1-bff573000a32}, !- Handle