
OS:Version,
  {4bc3d894-56c9-4edf-8739-c73ef14d4263}, !- Handle
  1.0.6;                                  !- Version Identifier

OS:DefaultConstructionSet,
  {8bc2eade-5183-4b1f-81c8-52416c523f5b}, !- Handle
  Default Constructions,                  !- Name
  {3f03218b-9323-4e04-a6d8-6ecb24ff3646}, !- Default Exterior Surface Constructions Name
  {7be3e3b0-6e67-4aca-8f58-782b98a8fb49}, !- Default Interior Surface Constructions Name
  {c32ad08a-f2bc-4506-ab63-9a9c40a160e4}, !- Default Ground Contact Surface Constructions Name
  {f6dc6012-9806-4aba-bbf2-4107f6822fc0}, !- Default Exterior SubSurface Constructions Name
  {c3a72558-b97b-463e-8f7c-1f69a62322b6}, !- Default Interior SubSurface Constructions Name
  {8546ad4d-8615-4117-b131-b1606762b9cb}, !- Interior Partition Construction Name
  ,                                       !- Space Shading Construction Name
  ,                                       !- Building Shading Construction Name
  ;                                       !- Site Shading Construction Name

OS:DefaultSurfaceConstructions,
  {3f03218b-9323-4e04-a6d8-6ecb24ff3646}, !- Handle
  Exterior Surface Constructions,         !- Name
  ,                                       !- Floor Construction Name
  {2b5edf9f-f0d0-4232-83d2-43ee9f6a3d6a}, !- Wall Construction Name
  {0c1605aa-a88a-4bf8-a11f-d3524b29a4ca}; !- Roof Ceiling Construction Name

OS:DefaultSurfaceConstructions,
  {7be3e3b0-6e67-4aca-8f58-782b98a8fb49}, !- Handle
  Interior Surface Constructions,         !- Name
  {44430253-cd75-4de2-8445-3b0a5157cae9}, !- Floor Construction Name
  {2f8d10c7-f309-4378-9730-3d66d7586754}, !- Wall Construction Name
  {1a4c9f17-9f5a-42be-8905-bfe547a428e2}; !- Roof Ceiling Construction Name

OS:DefaultSurfaceConstructions,
  {c32ad08a-f2bc-4506-ab63-9a9c40a160e4}, !- Handle
  Ground Contact Surface Constructions,   !- Name
  {caec156b-b7fa-4a4b-bbbc-65fdea44af26}, !- Floor Construction Name
  ,                                       !- Wall Construction Name
  ;                                       !- Roof Ceiling Construction Name

OS:DefaultSubSurfaceConstructions,
  {f6dc6012-9806-4aba-bbf2-4107f6822fc0}, !- Handle
  Exterior SubSurface Constructions,      !- Name
  {8bd2f8b7-9940-4b4d-ac84-f899abdedac6}, !- Fixed Window Construction Name
  {8bd2f8b7-9940-4b4d-ac84-f899abdedac6}, !- Operable Window Construction Name
  ,                                       !- Door Construction Name
  {8bd2f8b7-9940-4b4d-ac84-f899abdedac6}, !- Glass Door Construction Name
  ,                                       !- Overhead Door Construction Name
  {8bd2f8b7-9940-4b4d-ac84-f899abdedac6}, !- Skylight Construction Name
  {8bd2f8b7-9940-4b4d-ac84-f899abdedac6}, !- Tubular Daylight Dome Construction Name
  {8bd2f8b7-9940-4b4d-ac84-f899abdedac6}; !- Tubular Daylight Diffuser Construction Name

OS:DefaultSubSurfaceConstructions,
  {c3a72558-b97b-463e-8f7c-1f69a62322b6}, !- Handle
  Interior SubSurface Constructions,      !- Name
  {abd97557-17b7-4c43-b5b3-d033e14575bd}, !- Fixed Window Construction Name
  {abd97557-17b7-4c43-b5b3-d033e14575bd}, !- Operable Window Construction Name
  {2ede925b-ad8b-4080-adc5-b45b653cf7a4}, !- Door Construction Name
  {abd97557-17b7-4c43-b5b3-d033e14575bd}, !- Glass Door Construction Name
  {2ede925b-ad8b-4080-adc5-b45b653cf7a4}, !- Overhead Door Construction Name
  {abd97557-17b7-4c43-b5b3-d033e14575bd}, !- Skylight Construction Name
  {abd97557-17b7-4c43-b5b3-d033e14575bd}, !- Tubular Daylight Dome Construction Name
  {abd97557-17b7-4c43-b5b3-d033e14575bd}; !- Tubular Daylight Diffuser Construction Name

OS:Material,
  {c97a8375-7cc1-4d1c-9a2b-8276a08f1319}, !- Handle
  M01 100mm brick,                        !- Name
  MediumRough,                            !- Roughness
  0.1016,                                 !- Thickness {m}
  0.89,                                   !- Conductivity {W/m-K}
  1920,                                   !- Density {kg/m3}
  790;                                    !- Specific Heat {J/kg-K}

OS:Material,
  {52e44893-1819-4623-a4f0-b5734a5d267d}, !- Handle
  M15 200mm heavyweight concrete,         !- Name
  MediumRough,                            !- Roughness
  0.2032,                                 !- Thickness {m}
  1.95,                                   !- Conductivity {W/m-K}
  2240,                                   !- Density {kg/m3}
  900;                                    !- Specific Heat {J/kg-K}

OS:Material,
  {8333cbbd-834c-44c6-913a-740d7546b423}, !- Handle
  I02 50mm insulation board,              !- Name
  MediumRough,                            !- Roughness
  0.0508,                                 !- Thickness {m}
  0.03,                                   !- Conductivity {W/m-K}
  43,                                     !- Density {kg/m3}
  1210;                                   !- Specific Heat {J/kg-K}

OS:Material:AirGap,
  {55bde58a-90e0-49ae-aebc-c0cee11a76e1}, !- Handle
  F04 Wall air space resistance,          !- Name
  0.15;                                   !- Thermal Resistance {m2-K/W}

OS:Material,
  {e78c5828-69f5-4834-bddd-1f7f782509b6}, !- Handle
  G01a 19mm gypsum board,                 !- Name
  MediumSmooth,                           !- Roughness
  0.019,                                  !- Thickness {m}
  0.16,                                   !- Conductivity {W/m-K}
  800,                                    !- Density {kg/m3}
  1090;                                   !- Specific Heat {J/kg-K}

OS:Construction,
  {2b5edf9f-f0d0-4232-83d2-43ee9f6a3d6a}, !- Handle
  Exterior Wall,                          !- Name
  ;                                       !- Surface Rendering Name

OS:Material,
  {102861d2-0cf9-420a-9932-0f7357a0e8ab}, !- Handle
  M11 100mm lightweight concrete,         !- Name
  MediumRough,                            !- Roughness
  0.1016,                                 !- Thickness {m}
  0.53,                                   !- Conductivity {W/m-K}
  1280,                                   !- Density {kg/m3}
  840;                                    !- Specific Heat {J/kg-K}

OS:Material:AirGap,
  {189f53b1-b718-440a-a87f-39e07f7798ca}, !- Handle
  F05 Ceiling air space resistance,       !- Name
  0.18;                                   !- Thermal Resistance {m2-K/W}

OS:Material,
  {70d2641c-e48c-4b35-8538-980c9bccae66}, !- Handle
  F16 Acoustic tile,                      !- Name
  MediumSmooth,                           !- Roughness
  0.0191,                                 !- Thickness {m}
  0.06,                                   !- Conductivity {W/m-K}
  368,                                    !- Density {kg/m3}
  590;                                    !- Specific Heat {J/kg-K}

OS:Construction,
  {0c1605aa-a88a-4bf8-a11f-d3524b29a4ca}, !- Handle
  Exterior Roof,                          !- Name
  ;                                       !- Surface Rendering Name

OS:Construction,
  {44430253-cd75-4de2-8445-3b0a5157cae9}, !- Handle
  Interior Floor,                         !- Name
  ;                                       !- Surface Rendering Name

OS:Material:AirWall,
  {d7b60294-8bb9-4373-abe4-0abfa5ca955d}, !- Handle
  Air Wall Material;                      !- Name

OS:Construction,
  {2f8d10c7-f309-4378-9730-3d66d7586754}, !- Handle
  Air Wall,                               !- Name
  ,                                       !- Surface Rendering Name
  {d7b60294-8bb9-4373-abe4-0abfa5ca955d}; !- Layer 1

OS:Construction,
  {1a4c9f17-9f5a-42be-8905-bfe547a428e2}, !- Handle
  Interior Ceiling,                       !- Name
  ;                                       !- Surface Rendering Name

OS:Material,
  {0e7e7ee7-317c-45ad-948d-2665ed9a8a49}, !- Handle
  MAT-CC05 8 HW CONCRETE,                 !- Name
  Rough,                                  !- Roughness
  0.2032,                                 !- Thickness {m}
  1.311,                                  !- Conductivity {W/m-K}
  2240,                                   !- Density {kg/m3}
  836.8,                                  !- Specific Heat {J/kg-K}
  0.9,                                    !- Thermal Absorptance
  0.7,                                    !- Solar Absorptance
  0.7;                                    !- Visible Absorptance

OS:Material:NoMass,
  {288cca0f-d6eb-4b5a-9e0c-b2401c8e8c84}, !- Handle
  CP02 CARPET PAD,                        !- Name
  VeryRough,                              !- Roughness
  0.2165,                                 !- Thermal Resistance {m2-K/W}
  0.9,                                    !- Thermal Absorptance
  0.7,                                    !- Solar Absorptance
  0.8;                                    !- Visible Absorptance

OS:Construction,
  {caec156b-b7fa-4a4b-bbbc-65fdea44af26}, !- Handle
  Slab,                                   !- Name
  ;                                       !- Surface Rendering Name

OS:WindowMaterial:SimpleGlazingSystem,
  {7b15ad79-dba7-4a72-af19-9817d94a542d}, !- Handle
  Simple Glazing,                         !- Name
  3.23646,                                !- U-Factor {W/m2-K}
  0.39,                                   !- Solar Heat Gain Coefficient
  0.6;                                    !- Visible Transmittance

OS:WindowMaterial:Glazing,
  {9f11845b-8118-49a9-856a-82c16f0b1d4a}, !- Handle
  Clear 3mm,                              !- Name
  SpectralAverage,                        !- Optical Data Type
  ,                                       !- Window Glass Spectral Data Set Name
  0.003,                                  !- Thickness {m}
  0.837,                                  !- Solar Transmittance at Normal Incidence
  0.075,                                  !- Front Side Solar Reflectance at Normal Incidence
  0.075,                                  !- Back Side Solar Reflectance at Normal Incidence
  0.898,                                  !- Visible Transmittance at Normal Incidence
  0.081,                                  !- Front Side Visible Reflectance at Normal Incidence
  0.081,                                  !- Back Side Visible Reflectance at Normal Incidence
  0,                                      !- Infrared Transmittance at Normal Incidence
  0.084,                                  !- Front Side Infrared Hemispherical Emissivity
  0.084,                                  !- Back Side Infrared Hemispherical Emissivity
  0.9;                                    !- Conductivity {W/m-K}

OS:WindowMaterial:Gas,
  {32b33044-eb45-47b6-a55e-114f25e8d26c}, !- Handle
  Air 13mm,                               !- Name
  Air,                                    !- Gas Type
  0.0127;                                 !- Thickness {m}

OS:Construction,
  {8bd2f8b7-9940-4b4d-ac84-f899abdedac6}, !- Handle
  Exterior Window,                        !- Name
  ;                                       !- Surface Rendering Name

OS:Construction,
  {abd97557-17b7-4c43-b5b3-d033e14575bd}, !- Handle
  Interior Window,                        !- Name
  ;                                       !- Surface Rendering Name

OS:Material,
  {81096ecf-acf6-46b1-933a-0b684fa3641d}, !- Handle
  G05 25mm wood,                          !- Name
  MediumSmooth,                           !- Roughness
  0.0254,                                 !- Thickness {m}
  0.15,                                   !- Conductivity {W/m-K}
  608,                                    !- Density {kg/m3}
  1630;                                   !- Specific Heat {J/kg-K}

OS:Construction,
  {2ede925b-ad8b-4080-adc5-b45b653cf7a4}, !- Handle
  Interior Door,                          !- Name
  ;                                       !- Surface Rendering Name

OS:Construction,
  {8546ad4d-8615-4117-b131-b1606762b9cb}, !- Handle
  Interior Partition,                     !- Name
  ;                                       !- Surface Rendering Name

OS:BuildingStory,
  {a14938cd-a56d-43ff-99f6-a4f3aeb16ce6}, !- Handle
  Building Story 1,                       !- Name
  0,                                      !- Nominal Z Coordinate {m}
  3.5,                                    !- Nominal Floor to Floor Height {m}
  ,                                       !- Default Construction Set Name
  ,                                       !- Default Schedule Set Name
  ;                                       !- Group Rendering Name

OS:ThermalZone,
  {2f8f9ba1-f0db-4582-82c5-f5cebc09bad3}, !- Handle
  Thermal Zone 1,                         !- Name
  ,                                       !- Multiplier
  ,                                       !- Ceiling Height {m}
  ,                                       !- Volume {m3}
  ,                                       !- Floor Area {m2}
  ,                                       !- Zone Inside Convection Algorithm
  ,                                       !- Zone Outside Convection Algorithm
  ,                                       !- Zone Conditioning Equipment List Name
  {1530c8db-8372-49c3-869a-a9867b6df70c}, !- Zone Air Inlet Port List
  {532b724e-f7c9-4a2b-b8fe-a83697716529}, !- Zone Air Exhaust Port List
  {7878d92e-9feb-4841-a28c-9787437ded7e}, !- Zone Air Node Name
  ,                                       !- Zone Return Air Node Name
  ,                                       !- Primary Daylighting Control Name
  ,                                       !- Fraction of Zone Controlled by Primary Daylighting Control
  ,                                       !- Secondary Daylighting Control Name
  ,                                       !- Fraction of Zone Controlled by Secondary Daylighting Control
  ,                                       !- Illuminance Map Name
  ,                                       !- Group Rendering Name
  ,                                       !- Thermostat Name
  No;                                     !- Use Ideal Air Loads

OS:Node,
  {ba5b72b5-6b79-464e-902a-67349e535f4d}, !- Handle
  Node 1,                                 !- Name
  {7878d92e-9feb-4841-a28c-9787437ded7e}, !- Inlet Port
  ;                                       !- Outlet Port

OS:Connection,
  {7878d92e-9feb-4841-a28c-9787437ded7e}, !- Handle
  Connection 1,                           !- Name
  {2f8f9ba1-f0db-4582-82c5-f5cebc09bad3}, !- Source Object
  11,                                     !- Outlet Port
  {ba5b72b5-6b79-464e-902a-67349e535f4d}, !- Target Object
  2;                                      !- Inlet Port

OS:PortList,
  {1530c8db-8372-49c3-869a-a9867b6df70c}, !- Handle
  Port List 1,                            !- Name
  {2f8f9ba1-f0db-4582-82c5-f5cebc09bad3}; !- HVAC Component

OS:PortList,
  {532b724e-f7c9-4a2b-b8fe-a83697716529}, !- Handle
  Port List 2,                            !- Name
  {2f8f9ba1-f0db-4582-82c5-f5cebc09bad3}; !- HVAC Component

OS:Sizing:Zone,
  {1fd267eb-d41d-4da8-8950-274cc424f46c}, !- Handle
  {2f8f9ba1-f0db-4582-82c5-f5cebc09bad3}, !- Zone or ZoneList Name
  14,                                     !- Zone Cooling Design Supply Air Temperature {C}
  40,                                     !- Zone Heating Design Supply Air Temperature {C}
  0.0085,                                 !- Zone Cooling Design Supply Air Humidity Ratio {kg-H2O/kg-air}
  0.008,                                  !- Zone Heating Design Supply Air Humidity Ratio {kg-H2O/kg-air}
  ,                                       !- Zone Heating Sizing Factor
  ,                                       !- Zone Cooling Sizing Factor
  DesignDay,                              !- Cooling Design Air Flow Method
  ,                                       !- Cooling Design Air Flow Rate {m3/s}
  ,                                       !- Cooling Minimum Air Flow per Zone Floor Area {m3/s-m2}
  ,                                       !- Cooling Minimum Air Flow {m3/s}
  ,                                       !- Cooling Minimum Air Flow Fraction
  DesignDay,                              !- Heating Design Air Flow Method
  ,                                       !- Heating Design Air Flow Rate {m3/s}
  ,                                       !- Heating Maximum Air Flow per Zone Floor Area {m3/s-m2}
  ,                                       !- Heating Maximum Air Flow {m3/s}
  ,                                       !- Heating Maximum Air Flow Fraction
  ,                                       !- Design Zone Air Distribution Effectiveness in Cooling Mode
  ;                                       !- Design Zone Air Distribution Effectiveness in Heating Mode

OS:ZoneHVAC:EquipmentList,
  {a2cd9423-93ff-45ac-bbcd-1ba462134b74}, !- Handle
  Zone HVAC Equipment List 1,             !- Name
  {2f8f9ba1-f0db-4582-82c5-f5cebc09bad3}; !- Thermal Zone

OS:Space,
  {4c5ab66f-d7c3-4a4e-abd2-31d0d65a8753}, !- Handle
  Space 1,                                !- Name
  ,                                       !- Space Type Name
  ,                                       !- Default Construction Set Name
  ,                                       !- Default Schedule Set Name
  ,                                       !- Direction of Relative North {deg}
  ,                                       !- X Origin {m}
  ,                                       !- Y Origin {m}
  ,                                       !- Z Origin {m}
  ,                                       !- Building Story Name
  {2f8f9ba1-f0db-4582-82c5-f5cebc09bad3}; !- Thermal Zone Name

OS:Surface,
  {0a179c8d-1a76-486d-ba09-ad0ff3a56560}, !- Handle
  Surface 1,                              !- Name
  Floor,                                  !- Surface Type
  ,                                       !- Construction Name
  {4c5ab66f-d7c3-4a4e-abd2-31d0d65a8753}, !- Space Name
  Ground,                                 !- Outside Boundary Condition
  ,                                       !- Outside Boundary Condition Object
  NoSun,                                  !- Sun Exposure
  NoWind,                                 !- Wind Exposure
  ,                                       !- View Factor to Ground
  ,                                       !- Number of Vertices
  0, 0, 0,                                !- X,Y,Z Vertex 1 {m}
  0, 4, 0,                                !- X,Y,Z Vertex 2 {m}
  3, 4, 0,                                !- X,Y,Z Vertex 3 {m}
  3, 0, 0;                                !- X,Y,Z Vertex 4 {m}

OS:Surface,
  {233bf544-8d2f-4f8e-9d9c-722aee811f52}, !- Handle
  Surface 2,                              !- Name
  Wall,                                   !- Surface Type
  ,                                       !- Construction Name
  {4c5ab66f-d7c3-4a4e-abd2-31d0d65a8753}, !- Space Name
  Outdoors,                               !- Outside Boundary Condition
  ,                                       !- Outside Boundary Condition Object
  SunExposed,                             !- Sun Exposure
  WindExposed,                            !- Wind Exposure
  ,                                       !- View Factor to Ground
  ,                                       !- Number of Vertices
  0, 4, 3.5,                              !- X,Y,Z Vertex 1 {m}
  0, 4, 0,                                !- X,Y,Z Vertex 2 {m}
  0, 0, 0,                                !- X,Y,Z Vertex 3 {m}
  0, 0, 3.5;                              !- X,Y,Z Vertex 4 {m}

OS:Surface,
  {97f6dac3-45b4-43fc-9c2d-fa008bec60ba}, !- Handle
  Surface 3,                              !- Name
  Wall,                                   !- Surface Type
  ,                                       !- Construction Name
  {4c5ab66f-d7c3-4a4e-abd2-31d0d65a8753}, !- Space Name
  Outdoors,                               !- Outside Boundary Condition
  ,                                       !- Outside Boundary Condition Object
  SunExposed,                             !- Sun Exposure
  WindExposed,                            !- Wind Exposure
  ,                                       !- View Factor to Ground
  ,                                       !- Number of Vertices
  3, 4, 3.5,                              !- X,Y,Z Vertex 1 {m}
  3, 4, 0,                                !- X,Y,Z Vertex 2 {m}
  0, 4, 0,                                !- X,Y,Z Vertex 3 {m}
  0, 4, 3.5;                              !- X,Y,Z Vertex 4 {m}

OS:Surface,
  {40d88853-b6cd-4328-b0f4-82511423c0b5}, !- Handle
  Surface 4,                              !- Name
  Wall,                                   !- Surface Type
  ,                                       !- Construction Name
  {4c5ab66f-d7c3-4a4e-abd2-31d0d65a8753}, !- Space Name
  Outdoors,                               !- Outside Boundary Condition
  ,                                       !- Outside Boundary Condition Object
  SunExposed,                             !- Sun Exposure
  WindExposed,                            !- Wind Exposure
  ,                                       !- View Factor to Ground
  ,                                       !- Number of Vertices
  3, 0, 3.5,                              !- X,Y,Z Vertex 1 {m}
  3, 0, 0,                                !- X,Y,Z Vertex 2 {m}
  3, 4, 0,                                !- X,Y,Z Vertex 3 {m}
  3, 4, 3.5;                              !- X,Y,Z Vertex 4 {m}

OS:Surface,
  {55fc6c27-ff16-4278-927e-5424b7fb6c53}, !- Handle
  Surface 5,                              !- Name
  Wall,                                   !- Surface Type
  ,                                       !- Construction Name
  {4c5ab66f-d7c3-4a4e-abd2-31d0d65a8753}, !- Space Name
  Outdoors,                               !- Outside Boundary Condition
  ,                                       !- Outside Boundary Condition Object
  SunExposed,                             !- Sun Exposure
  WindExposed,                            !- Wind Exposure
  ,                                       !- View Factor to Ground
  ,                                       !- Number of Vertices
  0, 0, 3.5,                              !- X,Y,Z Vertex 1 {m}
  0, 0, 0,                                !- X,Y,Z Vertex 2 {m}
  3, 0, 0,                                !- X,Y,Z Vertex 3 {m}
  3, 0, 3.5;                              !- X,Y,Z Vertex 4 {m}

OS:Surface,
  {25a910a6-99c1-47aa-a374-619ff7523944}, !- Handle
  Surface 6,                              !- Name
  RoofCeiling,                            !- Surface Type
  ,                                       !- Construction Name
  {4c5ab66f-d7c3-4a4e-abd2-31d0d65a8753}, !- Space Name
  Outdoors,                               !- Outside Boundary Condition
  ,                                       !- Outside Boundary Condition Object
  SunExposed,                             !- Sun Exposure
  WindExposed,                            !- Wind Exposure
  ,                                       !- View Factor to Ground
  ,                                       !- Number of Vertices
  3, 0, 3.5,                              !- X,Y,Z Vertex 1 {m}
  3, 4, 3.5,                              !- X,Y,Z Vertex 2 {m}
  0, 4, 3.5,                              !- X,Y,Z Vertex 3 {m}
  0, 0, 3.5;                              !- X,Y,Z Vertex 4 {m}

OS:BuildingStory,
  {b74a6b4d-336d-4f01-8d6f-e91d1c3d82eb}, !- Handle
  Building Story 2,                       !- Name
  3.5,                                    !- Nominal Z Coordinate {m}
  3.5,                                    !- Nominal Floor to Floor Height {m}
  ,                                       !- Default Construction Set Name
  ,                                       !- Default Schedule Set Name
  ;                                       !- Group Rendering Name

OS:ThermalZone,
  {2d052e15-7560-416f-b6e4-97def789a208}, !- Handle
  Thermal Zone 2,                         !- Name
  ,                                       !- Multiplier
  ,                                       !- Ceiling Height {m}
  ,                                       !- Volume {m3}
  ,                                       !- Floor Area {m2}
  ,                                       !- Zone Inside Convection Algorithm
  ,                                       !- Zone Outside Convection Algorithm
  ,                                       !- Zone Conditioning Equipment List Name
  {f493ee1d-934d-4901-a635-123171f7a525}, !- Zone Air Inlet Port List
  {b723f73d-1daa-4951-aca0-4e71f61a18c2}, !- Zone Air Exhaust Port List
  {7eb3ccaf-0b7c-4d25-96f1-26e17d363857}, !- Zone Air Node Name
  ,                                       !- Zone Return Air Node Name
  ,                                       !- Primary Daylighting Control Name
  ,                                       !- Fraction of Zone Controlled by Primary Daylighting Control
  ,                                       !- Secondary Daylighting Control Name
  ,                                       !- Fraction of Zone Controlled by Secondary Daylighting Control
  ,                                       !- Illuminance Map Name
  ,                                       !- Group Rendering Name
  ,                                       !- Thermostat Name
  No;                                     !- Use Ideal Air Loads

OS:Node,
  {8d951c17-8ba9-49c0-a3d8-7ddbfeb8a172}, !- Handle
  Node 2,                                 !- Name
  {7eb3ccaf-0b7c-4d25-96f1-26e17d363857}, !- Inlet Port
  ;                                       !- Outlet Port

OS:Connection,
  {7eb3ccaf-0b7c-4d25-96f1-26e17d363857}, !- Handle
  Connection 2,                           !- Name
  {2d052e15-7560-416f-b6e4-97def789a208}, !- Source Object
  11,                                     !- Outlet Port
  {8d951c17-8ba9-49c0-a3d8-7ddbfeb8a172}, !- Target Object
  2;                                      !- Inlet Port

OS:PortList,
  {f493ee1d-934d-4901-a635-123171f7a525}, !- Handle
  Port List 3,                            !- Name
  {2d052e15-7560-416f-b6e4-97def789a208}; !- HVAC Component

OS:PortList,
  {b723f73d-1daa-4951-aca0-4e71f61a18c2}, !- Handle
  Port List 4,                            !- Name
  {2d052e15-7560-416f-b6e4-97def789a208}; !- HVAC Component

OS:Sizing:Zone,
  {97248e10-6784-4fcf-862a-4d9cfcc3c03f}, !- Handle
  {2d052e15-7560-416f-b6e4-97def789a208}, !- Zone or ZoneList Name
  14,                                     !- Zone Cooling Design Supply Air Temperature {C}
  40,                                     !- Zone Heating Design Supply Air Temperature {C}
  0.0085,                                 !- Zone Cooling Design Supply Air Humidity Ratio {kg-H2O/kg-air}
  0.008,                                  !- Zone Heating Design Supply Air Humidity Ratio {kg-H2O/kg-air}
  ,                                       !- Zone Heating Sizing Factor
  ,                                       !- Zone Cooling Sizing Factor
  DesignDay,                              !- Cooling Design Air Flow Method
  ,                                       !- Cooling Design Air Flow Rate {m3/s}
  ,                                       !- Cooling Minimum Air Flow per Zone Floor Area {m3/s-m2}
  ,                                       !- Cooling Minimum Air Flow {m3/s}
  ,                                       !- Cooling Minimum Air Flow Fraction
  DesignDay,                              !- Heating Design Air Flow Method
  ,                                       !- Heating Design Air Flow Rate {m3/s}
  ,                                       !- Heating Maximum Air Flow per Zone Floor Area {m3/s-m2}
  ,                                       !- Heating Maximum Air Flow {m3/s}
  ,                                       !- Heating Maximum Air Flow Fraction
  ,                                       !- Design Zone Air Distribution Effectiveness in Cooling Mode
  ;                                       !- Design Zone Air Distribution Effectiveness in Heating Mode

OS:ZoneHVAC:EquipmentList,
  {bd09b62f-94d1-4c79-84dd-0cdd42b4d430}, !- Handle
  Zone HVAC Equipment List 2,             !- Name
  {2d052e15-7560-416f-b6e4-97def789a208}; !- Thermal Zone

OS:Space,
  {7276796c-0fcf-45a1-8116-cc5e6f3244ce}, !- Handle
  Space 2,                                !- Name
  ,                                       !- Space Type Name
  ,                                       !- Default Construction Set Name
  ,                                       !- Default Schedule Set Name
  ,                                       !- Direction of Relative North {deg}
  ,                                       !- X Origin {m}
  ,                                       !- Y Origin {m}
  ,                                       !- Z Origin {m}
  ,                                       !- Building Story Name
  {2d052e15-7560-416f-b6e4-97def789a208}; !- Thermal Zone Name

OS:Surface,
  {5b030884-0454-4267-8f22-fd6749d20002}, !- Handle
  Surface 7,                              !- Name
  Floor,                                  !- Surface Type
  ,                                       !- Construction Name
  {7276796c-0fcf-45a1-8116-cc5e6f3244ce}, !- Space Name
  Ground,                                 !- Outside Boundary Condition
  ,                                       !- Outside Boundary Condition Object
  NoSun,                                  !- Sun Exposure
  NoWind,                                 !- Wind Exposure
  ,                                       !- View Factor to Ground
  ,                                       !- Number of Vertices
  0, 0, 0,                                !- X,Y,Z Vertex 1 {m}
  0, 4, 0,                                !- X,Y,Z Vertex 2 {m}
  3, 4, 0,                                !- X,Y,Z Vertex 3 {m}
  3, 0, 0;                                !- X,Y,Z Vertex 4 {m}

OS:Surface,
  {c1d32bc4-21bb-4867-882e-284d188a4c6b}, !- Handle
  Surface 8,                              !- Name
  Wall,                                   !- Surface Type
  ,                                       !- Construction Name
  {7276796c-0fcf-45a1-8116-cc5e6f3244ce}, !- Space Name
  Outdoors,                               !- Outside Boundary Condition
  ,                                       !- Outside Boundary Condition Object